!- Darwin Line endings 

Version,
    9.4;                      !- Version Identifier

SimulationControl,
    No,                       !- Do Zone Sizing Calculation
    No,                       !- Do System Sizing Calculation
    No,                       !- Do Plant Sizing Calculation
    Yes,                      !- Run Simulation for Sizing Periods
    Yes,                      !- Run Simulation for Weather File Run Periods
    ,                         !- Do HVAC Sizing Simulation for Sizing Periods
    ;                         !- Maximum Number of HVAC Sizing Simulation Passes

Building,
    Thornton_09,              !- Name
    ,                         !- North Axis
    ,                         !- Terrain
    ,                         !- Loads Convergence Tolerance Value
    ,                         !- Temperature Convergence Tolerance Value
    ,                         !- Solar Distribution
    ,                         !- Maximum Number of Warmup Days
    ;                         !- Minimum Number of Warmup Days

ShadowCalculation,
    PolygonClipping,          !- Shading Calculation Method
    Periodic,                 !- Shading Calculation Update Frequency Method
    7,                        !- Shading Calculation Update Frequency
    15000,                    !- Maximum Figures in Shadow Overlap Calculations
    SutherlandHodgman,        !- Polygon Clipping Algorithm
    512,                      !- Pixel Counting Resolution
    SimpleSkyDiffuseModeling,    !- Sky Diffuse Modeling Algorithm
    No,                       !- Output External Shading Calculation Results
    No,                       !- Disable SelfShading Within Shading Zone Groups
    No;                       !- Disable SelfShading From Shading Zone Groups to Other Zones

SurfaceConvectionAlgorithm:Inside,
    TARP;                     !- Algorithm

SurfaceConvectionAlgorithm:Outside,
    DOE-2;                    !- Algorithm

HeatBalanceAlgorithm,
    ConductionTransferFunction,    !- Algorithm
    200;                      !- Surface Temperature Upper Limit

ZoneAirHeatBalanceAlgorithm,
    AnalyticalSolution;       !- Algorithm

ZoneAirContaminantBalance,
    No;                       !- Carbon Dioxide Concentration

ZoneCapacitanceMultiplier:ResearchSpecial,
    Zone Capacitance Multiplier Research Special,    !- Name
    ,                         !- Zone or ZoneList Name
    ,                         !- Temperature Capacity Multiplier
    ,                         !- Humidity Capacity Multiplier
    ,                         !- Carbon Dioxide Capacity Multiplier
    ;                         !- Generic Contaminant Capacity Multiplier

Timestep,
    6;                        !- Number of Timesteps per Hour

ConvergenceLimits,
    1;                        !- Minimum System Timestep

Site:Location,
    CA_PALO-ALTO-AP,          !- Name
    37.47,                    !- Latitude
    -122.12,                  !- Longitude
    -8,                       !- Time Zone
    2;                        !- Elevation

RunPeriod,
    Run Period 1,             !- Name
    1,                        !- Begin Month
    1,                        !- Begin Day of Month
    2019,                     !- Begin Year
    12,                       !- End Month
    31,                       !- End Day of Month
    2019,                     !- End Year
    Tuesday,                  !- Day of Week for Start Day
    No,                       !- Use Weather File Holidays and Special Days
    No,                       !- Use Weather File Daylight Saving Period
    No,                       !- Apply Weekend Holiday Rule
    Yes,                      !- Use Weather File Rain Indicators
    Yes;                      !- Use Weather File Snow Indicators

ScheduleTypeLimits,
    ActivityLevel,            !- Name
    0,                        !- Lower Limit Value
    ,                         !- Upper Limit Value
    Continuous,               !- Numeric Type
    activitylevel;            !- Unit Type

ScheduleTypeLimits,
    ActivityLevel 12,         !- Name
    0,                        !- Lower Limit Value
    ,                         !- Upper Limit Value
    Continuous,               !- Numeric Type
    activitylevel;            !- Unit Type

ScheduleTypeLimits,
    ActivityLevel 13,         !- Name
    0,                        !- Lower Limit Value
    ,                         !- Upper Limit Value
    Continuous,               !- Numeric Type
    activitylevel;            !- Unit Type

ScheduleTypeLimits,
    ActivityLevel 2,          !- Name
    0,                        !- Lower Limit Value
    ,                         !- Upper Limit Value
    Continuous,               !- Numeric Type
    activitylevel;            !- Unit Type

ScheduleTypeLimits,
    ActivityLevel 5,          !- Name
    0,                        !- Lower Limit Value
    ,                         !- Upper Limit Value
    Continuous,               !- Numeric Type
    activitylevel;            !- Unit Type

ScheduleTypeLimits,
    Always On Discrete Limits,    !- Name
    0,                        !- Lower Limit Value
    1,                        !- Upper Limit Value
    Discrete,                 !- Numeric Type
    availability;             !- Unit Type

ScheduleTypeLimits,
    Fraction,                 !- Name
    0,                        !- Lower Limit Value
    1,                        !- Upper Limit Value
    CONTINUOUS;               !- Numeric Type

Schedule:Compact,
    Bldg Activity,            !- Name
    ActivityLevel,            !- Schedule Type Limits Name
    Through: 12/31,           !- Field 1
    For: AllDays,             !- Field 2
    Until: 24:00,             !- Field 3
    132;                      !- Field 4

Schedule:Compact,
    Stairs Infil,             !- Name
    Fraction,                 !- Schedule Type Limits Name
    Through: 12/31,           !- Field 1
    For: AllDays,             !- Field 2
    Until: 24:00,             !- Field 3
    0.5;                      !- Field 4

Schedule:Compact,
    Bldg Occ,                 !- Name
    Fraction,                 !- Schedule Type Limits Name
    Through: 06/01,           !- Field 1
    For: Weekdays,            !- Field 2
    Until: 8:00,              !- Field 3
    0.0188679245283018,       !- Field 4
    Until: 12:00,             !- Field 5
    0.0188679245283018,       !- Field 6
    Until: 13:00,             !- Field 7
    0.0188679245283018,       !- Field 8
    Until: 17:00,             !- Field 9
    0.0188679245283018,       !- Field 10
    Until: 24:00,             !- Field 11
    0.0188679245283018,       !- Field 12
    For: SummerDesignDay,     !- Field 13
    Until: 24:00,             !- Field 14
    1,                        !- Field 15
    For: WinterDesignDay,     !- Field 16
    Until: 24:00,             !- Field 17
    0,                        !- Field 18
    For: Weekends Holidays AllOtherDays,    !- Field 19
    Until: 8:00,              !- Field 20
    0.5,                      !- Field 21
    Until: 24:00,             !- Field 22
    0.5,                      !- Field 23
    Through: 10/01,           !- Field 24
    For: Weekdays,            !- Field 25
    Until: 8:00,              !- Field 26
    3.559986e-04,             !- Field 27
    Until: 12:00,             !- Field 28
    3.559986e-04,             !- Field 29
    Until: 13:00,             !- Field 30
    3.559986e-04,             !- Field 31
    Until: 17:00,             !- Field 32
    3.559986e-04,             !- Field 33
    Until: 24:00,             !- Field 34
    3.559986e-04,             !- Field 35
    For: SummerDesignDay,     !- Field 36
    Until: 24:00,             !- Field 37
    1,                        !- Field 38
    For: WinterDesignDay,     !- Field 39
    Until: 24:00,             !- Field 40
    0,                        !- Field 41
    For: Weekends Holidays AllOtherDays,    !- Field 42
    Until: 8:00,              !- Field 43
    0.5,                      !- Field 44
    Until: 24:00,             !- Field 45
    0.5,                      !- Field 46
    Through: 12/31,           !- Field 47
    For: Weekdays,            !- Field 48
    Until: 8:00,              !- Field 49
    0.0188679245283018,       !- Field 50
    Until: 12:00,             !- Field 51
    0.0188679245283018,       !- Field 52
    Until: 13:00,             !- Field 53
    0.0188679245283018,       !- Field 54
    Until: 17:00,             !- Field 55
    0.0188679245283018,       !- Field 56
    Until: 24:00,             !- Field 57
    0.0188679245283018,       !- Field 58
    For: SummerDesignDay,     !- Field 59
    Until: 24:00,             !- Field 60
    1,                        !- Field 61
    For: WinterDesignDay,     !- Field 62
    Until: 24:00,             !- Field 63
    0,                        !- Field 64
    For: Weekends Holidays AllOtherDays,    !- Field 65
    Until: 8:00,              !- Field 66
    0.5,                      !- Field 67
    Until: 24:00,             !- Field 68
    0.5;                      !- Field 69

Schedule:Compact,
    Bldg Infil,               !- Name
    Fraction,                 !- Schedule Type Limits Name
    Through: 06/01,           !- Field 1
    For: Weekdays,            !- Field 2
    Until: 8:00,              !- Field 3
    0.0188679245283018,       !- Field 4
    Until: 12:00,             !- Field 5
    0.0188679245283018,       !- Field 6
    Until: 13:00,             !- Field 7
    0.0188679245283018,       !- Field 8
    Until: 17:00,             !- Field 9
    0.0188679245283018,       !- Field 10
    Until: 24:00,             !- Field 11
    0.0188679245283018,       !- Field 12
    For: SummerDesignDay,     !- Field 13
    Until: 24:00,             !- Field 14
    1,                        !- Field 15
    For: WinterDesignDay,     !- Field 16
    Until: 24:00,             !- Field 17
    0,                        !- Field 18
    For: Weekends Holidays AllOtherDays,    !- Field 19
    Until: 8:00,              !- Field 20
    0.5,                      !- Field 21
    Until: 24:00,             !- Field 22
    0.5,                      !- Field 23
    Through: 10/01,           !- Field 24
    For: Weekdays,            !- Field 25
    Until: 8:00,              !- Field 26
    3.559986e-04,             !- Field 27
    Until: 12:00,             !- Field 28
    3.559986e-04,             !- Field 29
    Until: 13:00,             !- Field 30
    3.559986e-04,             !- Field 31
    Until: 17:00,             !- Field 32
    3.559986e-04,             !- Field 33
    Until: 24:00,             !- Field 34
    3.559986e-04,             !- Field 35
    For: SummerDesignDay,     !- Field 36
    Until: 24:00,             !- Field 37
    1,                        !- Field 38
    For: WinterDesignDay,     !- Field 39
    Until: 24:00,             !- Field 40
    0,                        !- Field 41
    For: Weekends Holidays AllOtherDays,    !- Field 42
    Until: 8:00,              !- Field 43
    0.5,                      !- Field 44
    Until: 24:00,             !- Field 45
    0.5,                      !- Field 46
    Through: 12/31,           !- Field 47
    For: Weekdays,            !- Field 48
    Until: 8:00,              !- Field 49
    0.0188679245283018,       !- Field 50
    Until: 12:00,             !- Field 51
    0.0188679245283018,       !- Field 52
    Until: 13:00,             !- Field 53
    0.0188679245283018,       !- Field 54
    Until: 17:00,             !- Field 55
    0.0188679245283018,       !- Field 56
    Until: 24:00,             !- Field 57
    0.0188679245283018,       !- Field 58
    For: SummerDesignDay,     !- Field 59
    Until: 24:00,             !- Field 60
    1,                        !- Field 61
    For: WinterDesignDay,     !- Field 62
    Until: 24:00,             !- Field 63
    0,                        !- Field 64
    For: Weekends Holidays AllOtherDays,    !- Field 65
    Until: 8:00,              !- Field 66
    0.5,                      !- Field 67
    Until: 24:00,             !- Field 68
    0.5;                      !- Field 69

Schedule:Compact,
    Stairs Light,             !- Name
    Fraction,                 !- Schedule Type Limits Name
    Through: 06/01,           !- Field 1
    For: Weekdays,            !- Field 2
    Until: 8:00,              !- Field 3
    0.0188679245283018,       !- Field 4
    Until: 12:00,             !- Field 5
    0.0188679245283018,       !- Field 6
    Until: 13:00,             !- Field 7
    0.0188679245283018,       !- Field 8
    Until: 17:00,             !- Field 9
    0.0188679245283018,       !- Field 10
    Until: 24:00,             !- Field 11
    0.0188679245283018,       !- Field 12
    For: SummerDesignDay,     !- Field 13
    Until: 24:00,             !- Field 14
    1,                        !- Field 15
    For: WinterDesignDay,     !- Field 16
    Until: 24:00,             !- Field 17
    0,                        !- Field 18
    For: Weekends Holidays AllOtherDays,    !- Field 19
    Until: 8:00,              !- Field 20
    0.5,                      !- Field 21
    Until: 24:00,             !- Field 22
    0.5,                      !- Field 23
    Through: 10/01,           !- Field 24
    For: Weekdays,            !- Field 25
    Until: 8:00,              !- Field 26
    3.559986e-04,             !- Field 27
    Until: 12:00,             !- Field 28
    3.559986e-04,             !- Field 29
    Until: 13:00,             !- Field 30
    3.559986e-04,             !- Field 31
    Until: 17:00,             !- Field 32
    3.559986e-04,             !- Field 33
    Until: 24:00,             !- Field 34
    3.559986e-04,             !- Field 35
    For: SummerDesignDay,     !- Field 36
    Until: 24:00,             !- Field 37
    1,                        !- Field 38
    For: WinterDesignDay,     !- Field 39
    Until: 24:00,             !- Field 40
    0,                        !- Field 41
    For: Weekends Holidays AllOtherDays,    !- Field 42
    Until: 8:00,              !- Field 43
    0.5,                      !- Field 44
    Until: 24:00,             !- Field 45
    0.5,                      !- Field 46
    Through: 12/31,           !- Field 47
    For: Weekdays,            !- Field 48
    Until: 8:00,              !- Field 49
    0.0188679245283018,       !- Field 50
    Until: 12:00,             !- Field 51
    0.0188679245283018,       !- Field 52
    Until: 13:00,             !- Field 53
    0.0188679245283018,       !- Field 54
    Until: 17:00,             !- Field 55
    0.0188679245283018,       !- Field 56
    Until: 24:00,             !- Field 57
    0.0188679245283018,       !- Field 58
    For: SummerDesignDay,     !- Field 59
    Until: 24:00,             !- Field 60
    1,                        !- Field 61
    For: WinterDesignDay,     !- Field 62
    Until: 24:00,             !- Field 63
    0,                        !- Field 64
    For: Weekends Holidays AllOtherDays,    !- Field 65
    Until: 8:00,              !- Field 66
    0.5,                      !- Field 67
    Until: 24:00,             !- Field 68
    0.5;                      !- Field 69

Schedule:Compact,
    Auditorium Light,         !- Name
    Fraction,                 !- Schedule Type Limits Name
    Through: 06/01,           !- Field 1
    For: Weekdays,            !- Field 2
    Until: 8:00,              !- Field 3
    0.0188679245283018,       !- Field 4
    Until: 12:00,             !- Field 5
    0.0188679245283018,       !- Field 6
    Until: 13:00,             !- Field 7
    0.0188679245283018,       !- Field 8
    Until: 17:00,             !- Field 9
    0.0188679245283018,       !- Field 10
    Until: 24:00,             !- Field 11
    0.0188679245283018,       !- Field 12
    For: SummerDesignDay,     !- Field 13
    Until: 24:00,             !- Field 14
    1,                        !- Field 15
    For: WinterDesignDay,     !- Field 16
    Until: 24:00,             !- Field 17
    0,                        !- Field 18
    For: Weekends Holidays AllOtherDays,    !- Field 19
    Until: 8:00,              !- Field 20
    0.5,                      !- Field 21
    Until: 24:00,             !- Field 22
    0.5,                      !- Field 23
    Through: 10/01,           !- Field 24
    For: Weekdays,            !- Field 25
    Until: 8:00,              !- Field 26
    3.559986e-04,             !- Field 27
    Until: 12:00,             !- Field 28
    3.559986e-04,             !- Field 29
    Until: 13:00,             !- Field 30
    3.559986e-04,             !- Field 31
    Until: 17:00,             !- Field 32
    3.559986e-04,             !- Field 33
    Until: 24:00,             !- Field 34
    3.559986e-04,             !- Field 35
    For: SummerDesignDay,     !- Field 36
    Until: 24:00,             !- Field 37
    1,                        !- Field 38
    For: WinterDesignDay,     !- Field 39
    Until: 24:00,             !- Field 40
    0,                        !- Field 41
    For: Weekends Holidays AllOtherDays,    !- Field 42
    Until: 8:00,              !- Field 43
    0.5,                      !- Field 44
    Until: 24:00,             !- Field 45
    0.5,                      !- Field 46
    Through: 12/31,           !- Field 47
    For: Weekdays,            !- Field 48
    Until: 8:00,              !- Field 49
    0.0188679245283018,       !- Field 50
    Until: 12:00,             !- Field 51
    0.0188679245283018,       !- Field 52
    Until: 13:00,             !- Field 53
    0.0188679245283018,       !- Field 54
    Until: 17:00,             !- Field 55
    0.0188679245283018,       !- Field 56
    Until: 24:00,             !- Field 57
    0.0188679245283018,       !- Field 58
    For: SummerDesignDay,     !- Field 59
    Until: 24:00,             !- Field 60
    1,                        !- Field 61
    For: WinterDesignDay,     !- Field 62
    Until: 24:00,             !- Field 63
    0,                        !- Field 64
    For: Weekends Holidays AllOtherDays,    !- Field 65
    Until: 8:00,              !- Field 66
    0.5,                      !- Field 67
    Until: 24:00,             !- Field 68
    0.5;                      !- Field 69

Schedule:Compact,
    Auditorium Equip,         !- Name
    Fraction,                 !- Schedule Type Limits Name
    Through: 06/01,           !- Field 1
    For: Weekdays,            !- Field 2
    Until: 8:00,              !- Field 3
    0.0188679245283018,       !- Field 4
    Until: 12:00,             !- Field 5
    0.0188679245283018,       !- Field 6
    Until: 13:00,             !- Field 7
    0.0188679245283018,       !- Field 8
    Until: 17:00,             !- Field 9
    0.0188679245283018,       !- Field 10
    Until: 24:00,             !- Field 11
    0.0188679245283018,       !- Field 12
    For: SummerDesignDay,     !- Field 13
    Until: 24:00,             !- Field 14
    1,                        !- Field 15
    For: WinterDesignDay,     !- Field 16
    Until: 24:00,             !- Field 17
    0,                        !- Field 18
    For: Weekends Holidays AllOtherDays,    !- Field 19
    Until: 8:00,              !- Field 20
    0.5,                      !- Field 21
    Until: 24:00,             !- Field 22
    0.5,                      !- Field 23
    Through: 10/01,           !- Field 24
    For: Weekdays,            !- Field 25
    Until: 8:00,              !- Field 26
    3.559986e-04,             !- Field 27
    Until: 12:00,             !- Field 28
    3.559986e-04,             !- Field 29
    Until: 13:00,             !- Field 30
    3.559986e-04,             !- Field 31
    Until: 17:00,             !- Field 32
    3.559986e-04,             !- Field 33
    Until: 24:00,             !- Field 34
    3.559986e-04,             !- Field 35
    For: SummerDesignDay,     !- Field 36
    Until: 24:00,             !- Field 37
    1,                        !- Field 38
    For: WinterDesignDay,     !- Field 39
    Until: 24:00,             !- Field 40
    0,                        !- Field 41
    For: Weekends Holidays AllOtherDays,    !- Field 42
    Until: 8:00,              !- Field 43
    0.5,                      !- Field 44
    Until: 24:00,             !- Field 45
    0.5,                      !- Field 46
    Through: 12/31,           !- Field 47
    For: Weekdays,            !- Field 48
    Until: 8:00,              !- Field 49
    0.0188679245283018,       !- Field 50
    Until: 12:00,             !- Field 51
    0.0188679245283018,       !- Field 52
    Until: 13:00,             !- Field 53
    0.0188679245283018,       !- Field 54
    Until: 17:00,             !- Field 55
    0.0188679245283018,       !- Field 56
    Until: 24:00,             !- Field 57
    0.0188679245283018,       !- Field 58
    For: SummerDesignDay,     !- Field 59
    Until: 24:00,             !- Field 60
    1,                        !- Field 61
    For: WinterDesignDay,     !- Field 62
    Until: 24:00,             !- Field 63
    0,                        !- Field 64
    For: Weekends Holidays AllOtherDays,    !- Field 65
    Until: 8:00,              !- Field 66
    0.5,                      !- Field 67
    Until: 24:00,             !- Field 68
    0.5;                      !- Field 69

Schedule:Compact,
    Lab Light,                !- Name
    Fraction,                 !- Schedule Type Limits Name
    Through: 06/01,           !- Field 1
    For: Weekdays,            !- Field 2
    Until: 8:00,              !- Field 3
    0.0188679245283018,       !- Field 4
    Until: 12:00,             !- Field 5
    0.0188679245283018,       !- Field 6
    Until: 13:00,             !- Field 7
    0.0188679245283018,       !- Field 8
    Until: 17:00,             !- Field 9
    0.0188679245283018,       !- Field 10
    Until: 24:00,             !- Field 11
    0.0188679245283018,       !- Field 12
    For: SummerDesignDay,     !- Field 13
    Until: 24:00,             !- Field 14
    1,                        !- Field 15
    For: WinterDesignDay,     !- Field 16
    Until: 24:00,             !- Field 17
    0,                        !- Field 18
    For: Weekends Holidays AllOtherDays,    !- Field 19
    Until: 8:00,              !- Field 20
    0.5,                      !- Field 21
    Until: 24:00,             !- Field 22
    0.5,                      !- Field 23
    Through: 10/01,           !- Field 24
    For: Weekdays,            !- Field 25
    Until: 8:00,              !- Field 26
    3.559986e-04,             !- Field 27
    Until: 12:00,             !- Field 28
    3.559986e-04,             !- Field 29
    Until: 13:00,             !- Field 30
    3.559986e-04,             !- Field 31
    Until: 17:00,             !- Field 32
    3.559986e-04,             !- Field 33
    Until: 24:00,             !- Field 34
    3.559986e-04,             !- Field 35
    For: SummerDesignDay,     !- Field 36
    Until: 24:00,             !- Field 37
    1,                        !- Field 38
    For: WinterDesignDay,     !- Field 39
    Until: 24:00,             !- Field 40
    0,                        !- Field 41
    For: Weekends Holidays AllOtherDays,    !- Field 42
    Until: 8:00,              !- Field 43
    0.5,                      !- Field 44
    Until: 24:00,             !- Field 45
    0.5,                      !- Field 46
    Through: 12/31,           !- Field 47
    For: Weekdays,            !- Field 48
    Until: 8:00,              !- Field 49
    0.0188679245283018,       !- Field 50
    Until: 12:00,             !- Field 51
    0.0188679245283018,       !- Field 52
    Until: 13:00,             !- Field 53
    0.0188679245283018,       !- Field 54
    Until: 17:00,             !- Field 55
    0.0188679245283018,       !- Field 56
    Until: 24:00,             !- Field 57
    0.0188679245283018,       !- Field 58
    For: SummerDesignDay,     !- Field 59
    Until: 24:00,             !- Field 60
    1,                        !- Field 61
    For: WinterDesignDay,     !- Field 62
    Until: 24:00,             !- Field 63
    0,                        !- Field 64
    For: Weekends Holidays AllOtherDays,    !- Field 65
    Until: 8:00,              !- Field 66
    0.5,                      !- Field 67
    Until: 24:00,             !- Field 68
    0.5;                      !- Field 69

Schedule:Compact,
    Lab Equip,                !- Name
    Fraction,                 !- Schedule Type Limits Name
    Through: 06/01,           !- Field 1
    For: Weekdays,            !- Field 2
    Until: 8:00,              !- Field 3
    0.0188679245283018,       !- Field 4
    Until: 12:00,             !- Field 5
    0.0188779245283018,       !- Field 6
    Until: 13:00,             !- Field 7
    0.0188679245283018,       !- Field 8
    Until: 17:00,             !- Field 9
    0.0188779245283018,       !- Field 10
    Until: 24:00,             !- Field 11
    0.0188679245283018,       !- Field 12
    For: SummerDesignDay,     !- Field 13
    Until: 24:00,             !- Field 14
    1,                        !- Field 15
    For: WinterDesignDay,     !- Field 16
    Until: 24:00,             !- Field 17
    0,                        !- Field 18
    For: Weekends Holidays AllOtherDays,    !- Field 19
    Until: 8:00,              !- Field 20
    0.5,                      !- Field 21
    Until: 24:00,             !- Field 22
    0.5,                      !- Field 23
    Through: 10/01,           !- Field 24
    For: Weekdays,            !- Field 25
    Until: 8:00,              !- Field 26
    3.559986e-04,             !- Field 27
    Until: 12:00,             !- Field 28
    3.561873e-04,             !- Field 29
    Until: 13:00,             !- Field 30
    3.559986e-04,             !- Field 31
    Until: 17:00,             !- Field 32
    3.561873e-04,             !- Field 33
    Until: 24:00,             !- Field 34
    3.559986e-04,             !- Field 35
    For: SummerDesignDay,     !- Field 36
    Until: 24:00,             !- Field 37
    1,                        !- Field 38
    For: WinterDesignDay,     !- Field 39
    Until: 24:00,             !- Field 40
    0,                        !- Field 41
    For: Weekends Holidays AllOtherDays,    !- Field 42
    Until: 8:00,              !- Field 43
    0.5,                      !- Field 44
    Until: 24:00,             !- Field 45
    0.5,                      !- Field 46
    Through: 12/31,           !- Field 47
    For: Weekdays,            !- Field 48
    Until: 8:00,              !- Field 49
    0.0188679245283018,       !- Field 50
    Until: 12:00,             !- Field 51
    0.0188779245283018,       !- Field 52
    Until: 13:00,             !- Field 53
    0.0188679245283018,       !- Field 54
    Until: 17:00,             !- Field 55
    0.0188779245283018,       !- Field 56
    Until: 24:00,             !- Field 57
    0.0188679245283018,       !- Field 58
    For: SummerDesignDay,     !- Field 59
    Until: 24:00,             !- Field 60
    1,                        !- Field 61
    For: WinterDesignDay,     !- Field 62
    Until: 24:00,             !- Field 63
    0,                        !- Field 64
    For: Weekends Holidays AllOtherDays,    !- Field 65
    Until: 8:00,              !- Field 66
    0.5,                      !- Field 67
    Until: 24:00,             !- Field 68
    0.5;                      !- Field 69

Schedule:Compact,
    Office Light,             !- Name
    Fraction,                 !- Schedule Type Limits Name
    Through: 06/01,           !- Field 1
    For: Weekdays,            !- Field 2
    Until: 8:00,              !- Field 3
    0.0188679245283018,       !- Field 4
    Until: 12:00,             !- Field 5
    0.0188679245283018,       !- Field 6
    Until: 13:00,             !- Field 7
    0.0188679245283018,       !- Field 8
    Until: 17:00,             !- Field 9
    0.0188679245283018,       !- Field 10
    Until: 24:00,             !- Field 11
    0.0188679245283018,       !- Field 12
    For: SummerDesignDay,     !- Field 13
    Until: 24:00,             !- Field 14
    1,                        !- Field 15
    For: WinterDesignDay,     !- Field 16
    Until: 24:00,             !- Field 17
    0,                        !- Field 18
    For: Weekends Holidays AllOtherDays,    !- Field 19
    Until: 8:00,              !- Field 20
    0.5,                      !- Field 21
    Until: 24:00,             !- Field 22
    0.5,                      !- Field 23
    Through: 10/01,           !- Field 24
    For: Weekdays,            !- Field 25
    Until: 8:00,              !- Field 26
    3.559986e-04,             !- Field 27
    Until: 12:00,             !- Field 28
    3.559986e-04,             !- Field 29
    Until: 13:00,             !- Field 30
    3.559986e-04,             !- Field 31
    Until: 17:00,             !- Field 32
    3.559986e-04,             !- Field 33
    Until: 24:00,             !- Field 34
    3.559986e-04,             !- Field 35
    For: SummerDesignDay,     !- Field 36
    Until: 24:00,             !- Field 37
    1,                        !- Field 38
    For: WinterDesignDay,     !- Field 39
    Until: 24:00,             !- Field 40
    0,                        !- Field 41
    For: Weekends Holidays AllOtherDays,    !- Field 42
    Until: 8:00,              !- Field 43
    0.5,                      !- Field 44
    Until: 24:00,             !- Field 45
    0.5,                      !- Field 46
    Through: 12/31,           !- Field 47
    For: Weekdays,            !- Field 48
    Until: 8:00,              !- Field 49
    0.0188679245283018,       !- Field 50
    Until: 12:00,             !- Field 51
    0.0188679245283018,       !- Field 52
    Until: 13:00,             !- Field 53
    0.0188679245283018,       !- Field 54
    Until: 17:00,             !- Field 55
    0.0188679245283018,       !- Field 56
    Until: 24:00,             !- Field 57
    0.0188679245283018,       !- Field 58
    For: SummerDesignDay,     !- Field 59